.subckt ori n1 n2				
vin n1 n2 pwl				
+	0.0001	0.207		
+	0.0002	0.81		
+	0.0003	1.805		
+	0.0004	3.267		
+	0.0005	5.32		
+	0.0006	8.026		
+	0.0007	11.385		
+	0.0008	15.129		
+	0.0009	19.123		
+	0.001	23.508		
+	0.0011	28.534		
+	0.0012	33.622		
+	0.0013	39.071		
+	0.0014	45.211		
+	0.0015	51.493		
+	0.0016	57.943		
+	0.0017	64.661		
+	0.0018	71.448		
+	0.0019	77.998		
+	0.002	84.286		
+	0.0021	89.773		
+	0.0022	93.803		
+	0.0023	96.739		
+	0.0024	99.004		
+	0.0025	100.49		
+	0.0026	101.38		
+	0.0027	102.039		
+	0.0028	102.593		
+	0.0029	102.922		
+	0.003	103.482		
+	0.0031	104.135		
+	0.0032	104.745		
+	0.0033	105.473		
+	0.0034	106.381		
+	0.0035	107.245		
+	0.0036	107.874		
+	0.0037	108.72		
+	0.0038	109.366		
+	0.0039	109.796		
+	0.004	110.237		
+	0.0041	110.685		
+	0.0042	111.009		
+	0.0043	111.096		
+	0.0044	111.345		
+	0.0045	111.519		
+	0.0046	111.5		
+	0.0047	111.631		
+	0.0048	111.824		
+	0.0049	111.656		
+	0.005	111.724		
+	0.0051	111.805		
+	0.0052	111.792		
+	0.0053	111.736		
+	0.0054	111.83		
+	0.0055	111.836		
+	0.0056	111.699		
+	0.0057	111.749		
+	0.0058	111.979		
+	0.0059	111.898		
+	0.006	112.004		
+	0.0061	112.315		
+	0.0062	112.352		
+	0.0063	112.396		
+	0.0064	112.526		
+	0.0065	112.483		
+	0.0066	112.29		
+	0.0067	111.867		
+	0.0068	111.369		
+	0.0069	110.256		
+	0.007	108.626		
+	0.0071	106.511		
+	0.0072	103.246		
+	0.0073	98.587		
+	0.0074	91.962		
+	0.0075	82.29		
+	0.0076	73.42		
+	0.0077	66.384		
+	0.0078	60.145		
+	0.0079	54.112		
+	0.008	48.576		
+	0.0081	43.494		
+	0.0082	38.692		
+	0.0083	34.089		
+	0.0084	30.058		
+	0.0085	26.326		
+	0.0086	22.625		
+	0.0087	19.309		
+	0.0088	16.33		
+	0.0089	13.468		
+	0.009	10.738		
+	0.0091	8.498		
+	0.0092	6.365		
+	0.0093	4.399		
+	0.0094	2.782		
+	0.0095	1.407		
+	0.0096	0.194		
+	0.0097	-0.757		
+	0.0098	-1.46		
+	0.0099	-2.064		
+	0.01	-2.599		
+	0.0101	-2.804		
+	0.0102	-2.99		
+	0.0103	-3.158		
+	0.0104	-3.127		
+	0.0105	-2.99		
+	0.0106	-3.127		
+	0.0107	-3.077		
+	0.0108	-2.922		
+	0.0109	-2.941		
+	0.011	-2.947		
+	0.0111	-2.866		
+	0.0112	-2.791		
+	0.0113	-2.866		
+	0.0114	-2.717		
+	0.0115	-2.623		
+	0.0116	-2.655		
+	0.0117	-2.636		
+	0.0118	-2.431		
+	0.0119	-2.381		
+	0.012	-2.381		
+	0.0121	-2.269		
+	0.0122	-2.132		
+	0.0123	-2.138		
+	0.0124	-2.182		
+	0.0125	-2.057		
+	0.0126	-2.076		
+	0.0127	-2.207		
+	0.0128	-2.076		
+	0.0129	-2.032		
+	0.013	-2.032		
+	0.0131	-1.952		
+	0.0132	-1.952		
+	0.0133	-2.02		
+	0.0134	-1.914		
+	0.0135	-1.678		
+	0.0136	-1.703		
+	0.0137	-1.585		
+	0.0138	-1.529		
+	0.0139	-1.442		
+	0.014	-1.442		
+	0.0141	-1.336		
+	0.0142	-1.205		
+	0.0143	-1.274		
+	0.0144	-1.23		
+	0.0145	-1.081		
+	0.0146	-1.131		
+	0.0147	-1.081		
+	0.0148	-1.019		
+	0.0149	-0.931		
+	0.015	-0.963		
+	0.0151	-0.857		
+	0.0152	-0.72		
+	0.0153	-0.72		
+	0.0154	-0.676		
+	0.0155	-0.515		
+	0.0156	-0.521		
+	0.0157	-0.589		
+	0.0158	-0.471		
+	0.0159	-0.477		
+	0.016	-0.496		
+	0.0161	-0.372		
+	0.0162	-0.079		
+	0.0163	0.188		
+	0.0164	0.841		
+	0.0165	1.924		
+	0.0166	3.292		
+	0.0167	5.382		
+	0.0168	8.393		
+	0.0169	11.633		
+	0.017	15.366		
+	0.0171	19.515		
+	0.0172	24.118		
+	0.0173	28.926		
+	0.0174	34.114		
+	0.0175	39.743		
+	0.0176	45.77		
+	0.0177	51.879		
+	0.0178	58.385		
+	0.0179	64.979		
+	0.018	71.616		
+	0.0181	78.122		
+	0.0182	84.429		
+	0.0183	89.605		
+	0.0184	93.722		
+	0.0185	96.721		
+	0.0186	98.929		
+	0.0187	100.403		
+	0.0188	101.367		
+	0.0189	102.058		
+	0.019	102.58		
+	0.0191	103.04		
+	0.0192	103.575		
+	0.0193	104.073		
+	0.0194	104.739		
+	0.0195	105.553		
+	0.0196	106.3		
+	0.0197	107.084		
+	0.0198	107.843		
+	0.0199	108.589		
+	0.02	109.074		
+	0.0201	109.646		
+	0.0202	110.256		
+	0.0203	110.573		
+	0.0204	110.841		
+	0.0205	111.164		
+	0.0206	111.394		
+	0.0207	111.432		
+	0.0208	111.624		
+	0.0209	111.705		
+	0.021	111.712		
+	0.0211	111.705		
+	0.0212	111.805		
+	0.0213	111.755		
+	0.0214	111.755		
+	0.0215	111.792		
+	0.0216	111.712		
+	0.0217	111.587		
+	0.0218	111.593		
+	0.0219	111.792		
+	0.022	111.799		
+	0.0221	111.935		
+	0.0222	112.103		
+	0.0223	112.309		
+	0.0224	112.421		
+	0.0225	112.595		
+	0.0226	112.613		
+	0.0227	112.539		
+	0.0228	112.358		
+	0.0229	111.979		
+	0.023	111.276		
+	0.0231	110.206		
+	0.0232	108.626		
+	0.0233	106.325		
+	0.0234	103.04		
+	0.0235	98.531		
+	0.0236	91.937		
+	0.0237	82.171		
+	0.0238	73.488		
+	0.0239	66.54		
+	0.024	60.201		
+	0.0241	54.199		
+	0.0242	48.744		
+	0.0243	43.618		
+	0.0244	38.766		
+	0.0245	34.325		
+	0.0246	30.12		
+	0.0247	26.338		
+	0.0248	22.643		
+	0.0249	19.353		
+	0.025	16.205		
+	0.0251	13.363		
+	0.0252	10.844		
+	0.0253	8.573		
+	0.0254	6.415		
+	0.0255	4.598		
+	0.0256	3.012		
+	0.0257	1.55		
+	0.0258	0.381		
+	0.0259	-0.533		
+	0.026	-1.342		
+	0.0261	-2.032		
+	0.0262	-2.431		
+	0.0263	-2.779		
+	0.0264	-3.028		
+	0.0265	-3.14		
+	0.0266	-3.196		
+	0.0267	-3.165		
+	0.0268	-3.165		
+	0.0269	-3.046		
+	0.027	-2.941		
+	0.0271	-2.934		
+	0.0272	-2.922		
+	0.0273	-2.785		
+	0.0274	-2.729		
+	0.0275	-2.692		
+	0.0276	-2.58		
+	0.0277	-2.605		
+	0.0278	-2.536		
+	0.0279	-2.518		
+	0.028	-2.418		
+	0.0281	-2.443		
+	0.0282	-2.362		
+	0.0283	-2.35		
+	0.0284	-2.263		
+	0.0285	-2.25		
+	0.0286	-2.126		
+	0.0287	-2.126		
+	0.0288	-2.12		
+	0.0289	-2.064		
+	0.029	-1.995		
+	0.0291	-2.001		
+	0.0292	-1.933		
+	0.0293	-1.833		
+	0.0294	-1.921		
+	0.0295	-1.883		
+	0.0296	-1.765		
+	0.0297	-1.734		
+	0.0298	-1.753		
+	0.0299	-1.653		
+	0.03	-1.554		
+	0.0301	-1.628		
+	0.0302	-1.485		
+	0.0303	-1.323		
+	0.0304	-1.323		
+	0.0305	-1.298		
+	0.0306	-1.143		
+	0.0307	-0.994		
+	0.0308	-1.037		
+	0.0309	-0.9		
+	0.031	-0.876		
+	0.0311	-0.9		
+	0.0312	-0.9		
+	0.0313	-0.77		
+	0.0314	-0.788		
+	0.0315	-0.77		
+	0.0316	-0.714		
+	0.0317	-0.62		
+	0.0318	-0.701		
+	0.0319	-0.546		
+	0.032	-0.49		
+	0.0321	-0.459		
+	0.0322	-0.428		
+	0.0323	-0.272		
+	0.0324	-0.067		
+	0.0325	0.313		
+	0.0326	0.966		
+	0.0327	1.893		
+	0.0328	3.217		
+	0.0329	5.233		
+	0.033	8.163		
+	0.0331	11.31		
+	0.0332	14.974		
+	0.0333	19.085		
+	0.0334	23.496		
+	0.0335	28.248		
+	0.0336	33.535		
+	0.0337	39.04		
+	0.0338	44.937		
+	0.0339	51.12		
+	0.034	57.651		
+	0.0341	64.182		
+	0.0342	70.745		
+	0.0343	77.289		
+	0.0344	83.552		
+	0.0345	88.821		
+	0.0346	93.057		
+	0.0347	96.223		
+	0.0348	98.413		
+	0.0349	99.961		
+	0.035	101.069		
+	0.0351	101.703		
+	0.0352	102.25		
+	0.0353	102.823		
+	0.0354	103.37		
+	0.0355	103.886		
+	0.0356	104.602		
+	0.0357	105.466		
+	0.0358	106.144		
+	0.0359	106.941		
+	0.036	107.737		
+	0.0361	108.353		
+	0.0362	108.937		
+	0.0363	109.578		
+	0.0364	110.094		
+	0.0365	110.331		
+	0.0366	110.648		
+	0.0367	110.953		
+	0.0368	111.096		
+	0.0369	111.351		
+	0.037	111.5		
+	0.0371	111.649		
+	0.0372	111.662		
+	0.0373	111.712		
+	0.0374	111.768		
+	0.0375	111.755		
+	0.0376	111.805		
+	0.0377	111.768		
+	0.0378	111.687		
+	0.0379	111.55		
+	0.038	111.693		
+	0.0381	111.593		
+	0.0382	111.612		
+	0.0383	111.768		
+	0.0384	111.985		
+	0.0385	112.097		
+	0.0386	112.296		
+	0.0387	112.489		
+	0.0388	112.526		
+	0.0389	112.502		
+	0.039	112.402		
+	0.0391	112.147		
+	0.0392	111.376		
+	0.0393	110.455		
+	0.0394	108.987		
+	0.0395	106.623		
+	0.0396	103.607		
+	0.0397	99.377		
+	0.0398	93.113		
+	0.0399	83.615		
+	0.04	74.744		
+	0.0401	67.572		
+	0.0402	61.141		
+	0.0403	55.194		
+	0.0404	49.789		
+	0.0405	44.489		
+	0.0406	39.631		
+	0.0407	35.277		
+	0.0408	31.003		
+	0.0409	27.035		
+	0.041	23.502		
+	0.0411	20.012		
+	0.0412	16.809		
+	0.0413	13.935		
+	0.0414	11.341		
+	0.0415	8.828		
+	0.0416	6.701		
+	0.0417	4.884		
+	0.0418	3.168		
+	0.0419	1.749		
+	0.042	0.611		
+	0.0421	-0.328		
+	0.0422	-1.311		
+	0.0423	-1.765		
+	0.0424	-2.219		
+	0.0425	-2.642		
+	0.0426	-2.872		
+	0.0427	-2.934		
+	0.0428	-3.152		
+	0.0429	-3.239		
+	0.043	-3.096		
+	0.0431	-3.04		
+	0.0432	-3.146		
+	0.0433	-2.997		
+	0.0434	-2.953		
+	0.0435	-2.947		
+	0.0436	-2.866		
+	0.0437	-2.655		
+	0.0438	-2.592		
+	0.0439	-2.648		
+	0.044	-2.368		
+	0.0441	-2.362		
+	0.0442	-2.393		
+	0.0443	-2.343		
+	0.0444	-2.232		
+	0.0445	-2.331		
+	0.0446	-2.3		
+	0.0447	-2.163		
+	0.0448	-2.188		
+	0.0449	-2.294		
+	0.045	-2.2		
+	0.0451	-2.082		
+	0.0452	-2.107		
+	0.0453	-2.001		
+	0.0454	-1.852		
+	0.0455	-1.939		
+	0.0456	-1.883		
+	0.0457	-1.715		
+	0.0458	-1.672		
+	0.0459	-1.784		
+	0.046	-1.585		
+	0.0461	-1.566		
+	0.0462	-1.585		
+	0.0463	-1.572		
+	0.0464	-1.354		
+	0.0465	-1.448		
+	0.0466	-1.473		
+	0.0467	-1.23		
+	0.0468	-1.131		
+	0.0469	-1.187		
+	0.047	-0.963		
+	0.0471	-0.801		
+	0.0472	-0.931		
+	0.0473	-0.838		
+	0.0474	-0.664		
+	0.0475	-0.708		
+	0.0476	-0.745		
+	0.0477	-0.627		
+	0.0478	-0.62		
+	0.0479	-0.708		
+	0.048	-0.571		
+	0.0481	-0.552		
+	0.0482	-0.645		
+	0.0483	-0.67		
+	0.0484	-0.465		
+	0.0485	-0.39		
+	0.0486	-0.21		
+	0.0487	0.356		
+	0.0488	0.991		
+	0.0489	1.861		
+	0.049	3.242		
+	0.0491	5.301		
+	0.0492	8.026		
+	0.0493	11.173		
+	0.0494	14.787		
+	0.0495	18.743		
+	0.0496	23.066		
+	0.0497	27.887		
+	0.0498	33		
+	0.0499	38.343		
+	0.05	44.203		
+	0.0501	50.454		
+	0.0502	56.718		
+	0.0503	63.224		
+	0.0504	69.924		
+	0.0505	76.306		
+	0.0506	82.563		
+	0.0507	88.174		
+	0.0508	92.522		
+	0.0509	95.682		
+	0.051	98.046		
+	0.0511	99.793		
+	0.0512	100.764		
+	0.0513	101.386		
+	0.0514	102.126		
+	0.0515	102.543		
+	0.0516	102.96		
+	0.0517	103.656		
+	0.0518	104.353		
+	0.0519	104.963		
+	0.052	105.889		
+	0.0521	106.841		
+	0.0522	107.476		
+	0.0523	108.185		
+	0.0524	108.869		
+	0.0525	109.435		
+	0.0526	109.827		
+	0.0527	110.268		
+	0.0528	110.648		
+	0.0529	110.754		
+	0.053	111.04		
+	0.0531	111.295		
+	0.0532	111.301		
+	0.0533	111.295		
+	0.0534	111.562		
+	0.0535	111.568		
+	0.0536	111.519		
+	0.0537	111.755		
+	0.0538	111.73		
+	0.0539	111.643		
+	0.054	111.624		
+	0.0541	111.656		
+	0.0542	111.531		
+	0.0543	111.581		
+	0.0544	111.631		
+	0.0545	111.743		
+	0.0546	111.736		
+	0.0547	112.035		
+	0.0548	112.159		
+	0.0549	112.246		
+	0.055	112.246		
+	0.0551	112.377		
+	0.0552	112.222		
+	0.0553	111.898		
+	0.0554	111.425		
+	0.0555	110.536		
+	0.0556	108.968		
+	0.0557	107.028		
+	0.0558	104.135		
+	0.0559	99.974		
+	0.056	94.121		
+	0.0561	85.182		
+	0.0562	75.814		
+	0.0563	68.418		
+	0.0564	62.123		
+	0.0565	56.046		
+	0.0566	50.38		
+	0.0567	45.223		
+	0.0568	40.371		
+	0.0569	35.737		
+	0.057	31.601		
+	0.0571	27.806		
+	0.0572	23.981		
+	0.0573	20.497		
+	0.0574	17.499		
+	0.0575	14.569		
+	0.0576	11.783		
+	0.0577	9.357		
+	0.0578	7.242		
+	0.0579	5.146		
+	0.058	3.441		
+	0.0581	2.06		
+	0.0582	0.754		
+	0.0583	-0.39		
+	0.0584	-1.131		
+	0.0585	-1.765		
+	0.0586	-2.3		
+	0.0587	-2.561		
+	0.0588	-2.692		
+	0.0589	-2.978		
+	0.059	-3.09		
+	0.0591	-2.941		
+	0.0592	-2.978		
+	0.0593	-3.084		
+	0.0594	-2.953		
+	0.0595	-2.966		
+	0.0596	-3.077		
+	0.0597	-2.941		
+	0.0598	-2.822		
+	0.0599	-2.835		
+	0.06	-2.754		
+	0.0601	-2.561		
+	0.0602	-2.474		
+	0.0603	-2.53		
+	0.0604	-2.35		
+	0.0605	-2.269		
+	0.0606	-2.325		
+	0.0607	-2.232		
+	0.0608	-2.057		
+	0.0609	-2.163		
+	0.061	-2.225		
+	0.0611	-2.088		
+	0.0612	-2.157		
+	0.0613	-2.194		
+	0.0614	-2.07		
+	0.0615	-2.001		
+	0.0616	-2.07		
+	0.0617	-2.001		
+	0.0618	-1.871		
+	0.0619	-1.846		
+	0.062	-1.784		
+	0.0621	-1.622		
+	0.0622	-1.597		
+	0.0623	-1.622		
+	0.0624	-1.442		
+	0.0625	-1.33		
+	0.0626	-1.423		
+	0.0627	-1.361		
+	0.0628	-1.211		
+	0.0629	-1.298		
+	0.063	-1.236		
+	0.0631	-1.062		
+	0.0632	-1.106		
+	0.0633	-1.099		
+	0.0634	-0.907		
+	0.0635	-0.869		
+	0.0636	-0.813		
+	0.0637	-0.745		
+	0.0638	-0.589		
+	0.0639	-0.645		
+	0.064	-0.583		
+	0.0641	-0.484		
+	0.0642	-0.515		
+	0.0643	-0.564		
+	0.0644	-0.54		
+	0.0645	-0.515		
+	0.0646	-0.577		
+	0.0647	-0.446		
+	0.0648	-0.21		
+	0.0649	0.138		
+	0.065	0.68		
+	0.0651	1.756		
+	0.0652	3.043		
+	0.0653	5.015		
+	0.0654	7.764		
+	0.0655	10.993		
+	0.0656	14.489		
+	0.0657	18.382		
+	0.0658	22.855		
+	0.0659	27.47		
+	0.066	32.409		
+	0.0661	37.864		
+	0.0662	43.593		
+	0.0663	49.565		
+	0.0664	55.866		
+	0.0665	62.347		
+	0.0666	68.767		
+	0.0667	75.192		
+	0.0668	81.593		
+	0.0669	87.241		
+	0.067	91.657		
+	0.0671	95.097		
+	0.0672	97.647		
+	0.0673	99.283		
+	0.0674	100.527		
+	0.0675	101.436		
+	0.0676	101.89		
+	0.0677	102.195		
+	0.0678	102.854		
+	0.0679	103.289		
+	0.068	103.974		
+	0.0681	104.72		
+	0.0682	105.516		
+	0.0683	106.219		
+	0.0684	107.009		
+	0.0685	107.874		
+	0.0686	108.508		
+	0.0687	109.037		
+	0.0688	109.721		
+	0.0689	110.001		
+	0.069	110.3		
+	0.0691	110.679		
+	0.0692	110.934		
+	0.0693	111.027		
+	0.0694	111.108		
+	0.0695	111.22		
+	0.0696	111.195		
+	0.0697	111.214		
+	0.0698	111.481		
+	0.0699	111.444		
+	0.07	111.351		
+	0.0701	111.438		
+	0.0702	111.537		
+	0.0703	111.413		
+	0.0704	111.444		
+	0.0705	111.525		
+	0.0706	111.575		
+	0.0707	111.581		
+	0.0708	111.824		
+	0.0709	111.991		
+	0.071	111.923		
+	0.0711	112.147		
+	0.0712	112.24		
+	0.0713	112.159		
+	0.0714	112.01		
+	0.0715	111.805		
+	0.0716	111.295		
+	0.0717	110.287		
+	0.0718	109.093		
+	0.0719	107.202		
+	0.072	104.378		
+	0.0721	100.627		
+	0.0722	95.209		
+	0.0723	86.712		
+	0.0724	77.201		
+	0.0725	69.768		
+	0.0726	63.113		
+	0.0727	56.948		
+	0.0728	51.35		
+	0.0729	46.088		
+	0.073	41.093		
+	0.0731	36.508		
+	0.0732	32.26		
+	0.0733	28.173		
+	0.0734	24.553		
+	0.0735	21.132		
+	0.0736	17.891		
+	0.0737	14.856		
+	0.0738	12.318		
+	0.0739	9.786		
+	0.074	7.441		
+	0.0741	5.513		
+	0.0742	3.759		
+	0.0743	2.16		
+	0.0744	0.866		
+	0.0745	-0.117		
+	0.0746	-1.093		
+	0.0747	-1.852		
+	0.0748	-2.269		
+	0.0749	-2.661		
+	0.075	-2.978		
+	0.0751	-3.152		
+	0.0752	-3.046		
+	0.0753	-3.146		
+	0.0754	-3.165		
+	0.0755	-3.071		
+	0.0756	-2.984		
+	0.0757	-2.966		
+	0.0758	-2.934		
+	0.0759	-2.829		
+	0.076	-2.885		
+	0.0761	-2.804		
+	0.0762	-2.723		
+	0.0763	-2.748		
+	0.0764	-2.686		
+	0.0765	-2.655		
+	0.0766	-2.511		
+	0.0767	-2.543		
+	0.0768	-2.443		
+	0.0769	-2.306		
+	0.077	-2.288		
+	0.0771	-2.238		
+	0.0772	-2.144		
+	0.0773	-2.07		
+	0.0774	-2.12		
+	0.0775	-2.039		
+	0.0776	-1.995		
+	0.0777	-2.051		
+	0.0778	-2.113		
+	0.0779	-1.983		
+	0.078	-1.97		
+	0.0781	-1.952		
+	0.0782	-1.865		
+	0.0783	-1.865		
+	0.0784	-1.84		
+	0.0785	-1.678		
+	0.0786	-1.56		
+	0.0787	-1.56		
+	0.0788	-1.379		
+	0.0789	-1.255		
+	0.079	-1.305		
+	0.0791	-1.205		
+	0.0792	-1.087		
+	0.0793	-1.081		
+	0.0794	-1.112		
+	0.0795	-1.075		
+	0.0796	-1		
+	0.0797	-0.907		
+	0.0798	-0.907		
+	0.0799	-0.813		
+	0.08	-0.77		
+	0.0801	-0.751		
+	0.0802	-0.633		
+	0.0803	-0.564		
+	0.0804	-0.515		
+	0.0805	-0.515		
+	0.0806	-0.465		
+	0.0807	-0.533		
+	0.0808	-0.428		
+	0.0809	-0.316		
+	0.081	-0.086		
+	0.0811	0.132		
+	0.0812	0.742		
+	0.0813	1.494		
+	0.0814	2.72		
+	0.0815	4.536		
+	0.0816	7.23		
+	0.0817	10.253		
+	0.0818	13.736		
+	0.0819	17.667		
+	0.082	21.99		
+	0.0821	26.593		
+	0.0822	31.545		
+	0.0823	36.819		
+	0.0824	42.399		
+	0.0825	48.476		
+	0.0826	54.721		
+	0.0827	61.072		
+	0.0828	67.373		
+	0.0829	73.867		
+	0.083	80.156		
+	0.0831	85.879		
+	0.0832	90.563		
+	0.0833	94.195		
+	0.0834	96.783		
+	0.0835	98.78		
+	0.0836	100.148		
+	0.0837	101.075		
+	0.0838	101.703		
+	0.0839	102.201		
+	0.084	102.748		
+	0.0841	103.215		
+	0.0842	103.83		
+	0.0843	104.633		
+	0.0844	105.274		
+	0.0845	106.057		
+	0.0846	106.847		
+	0.0847	107.612		
+	0.0848	108.166		
+	0.0849	108.869		
+	0.085	109.373		
+	0.0851	109.777		
+	0.0852	110.181		
+	0.0853	110.542		
+	0.0854	110.828		
+	0.0855	110.928		
+	0.0856	111.164		
+	0.0857	111.307		
+	0.0858	111.301		
+	0.0859	111.413		
+	0.086	111.444		
+	0.0861	111.382		
+	0.0862	111.407		
+	0.0863	111.457		
+	0.0864	111.413		
+	0.0865	111.32		
+	0.0866	111.369		
+	0.0867	111.32		
+	0.0868	111.394		
+	0.0869	111.612		
+	0.087	111.743		
+	0.0871	111.886		
+	0.0872	112.023		
+	0.0873	112.215		
+	0.0874	112.315		
+	0.0875	112.321		
+	0.0876	112.315		
+	0.0877	112.023		
+	0.0878	111.5		
+	0.0879	110.741		
+	0.088	109.566		
+	0.0881	107.755		
+	0.0882	105.249		
+	0.0883	101.896		
+	0.0884	96.951		
+	0.0885	89.735		
+	0.0886	80.088		
+	0.0887	72.02		
+	0.0888	65.271		
+	0.0889	59.069		
+	0.089	53.347		
+	0.0891	47.941		
+	0.0892	42.946		
+	0.0893	38.25		
+	0.0894	33.815		
+	0.0895	29.679		
+	0.0896	25.859		
+	0.0897	22.314		
+	0.0898	18.992		
+	0.0899	15.95		
+	0.09	13.164		
+	0.0901	10.632		
+	0.0902	8.256		
+	0.0903	6.247		
+	0.0904	4.48		
+	0.0905	2.732		
+	0.0906	1.426		
+	0.0907	0.4		
+	0.0908	-0.676		
+	0.0909	-1.386		
+	0.091	-1.933		
+	0.0911	-2.493		
+	0.0912	-2.785		
+	0.0913	-3.015		
+	0.0914	-3.084		
+	0.0915	-3.27		
+	0.0916	-3.221		
+	0.0917	-3.152		
+	0.0918	-3.127		
+	0.0919	-3.028		
+	0.092	-2.866		
+	0.0921	-2.841		
+	0.0922	-2.872		
+	0.0923	-2.729		
+	0.0924	-2.648		
+	0.0925	-2.623		
+	0.0926	-2.505		
+	0.0927	-2.48		
+	0.0928	-2.499		
+	0.0929	-2.524		
+	0.093	-2.387		
+	0.0931	-2.375		
+	0.0932	-2.368		
+	0.0933	-2.275		
+	0.0934	-2.163		
+	0.0935	-2.219		
+	0.0936	-2.101		
+	0.0937	-2.008		
+	0.0938	-2.032		
+	0.0939	-2.076		
+	0.094	-1.914		
+	0.0941	-1.896		
+	0.0942	-1.939		
+	0.0943	-1.746		
+	0.0944	-1.809		
+	0.0945	-1.865		
+	0.0946	-1.802		
+	0.0947	-1.634		
+	0.0948	-1.684		
+	0.0949	-1.616		
+	0.095	-1.454		
+	0.0951	-1.41		
+	0.0952	-1.404		
+	0.0953	-1.224		
+	0.0954	-1.143		
+	0.0955	-1.168		
+	0.0956	-1.037		
+	0.0957	-0.863		
+	0.0958	-0.826		
+	0.0959	-0.876		
+	0.096	-0.739		
+	0.0961	-0.708		
+	0.0962	-0.832		
+	0.0963	-0.757		
+	0.0964	-0.639		
+	0.0965	-0.757		
+	0.0966	-0.664		
+	0.0967	-0.577		
+	0.0968	-0.596		
+	0.0969	-0.558		
+	0.097	-0.39		
+	0.0971	-0.322		
+	0.0972	-0.278		
+	0.0973	0.132		
+	0.0974	0.667		
+	0.0975	1.239		
+	0.0976	2.303		
+	0.0977	3.895		
+	0.0978	6.178		
+	0.0979	9.002		
+	0.098	12.311		
+	0.0981	16.044		
+	0.0982	20.074		
+	0.0983	24.541		
+	0.0984	29.374		
+	0.0985	34.449		
+	0.0986	40.029		
+	0.0987	45.926		
+	0.0988	52.034		
+	0.0989	58.298		
+	0.099	64.711		
+	0.0991	71.149		
+	0.0992	77.425		
+	0.0993	83.434		
+	0.0994	88.647		
+	0.0995	92.584		
+	0.0996	95.595		
+	0.0997	97.94		
+	0.0998	99.538		
+	0.0999	100.459		
+	0.1	101.274		
+	0.1001	101.884		
+	0.1002	102.269		
+	0.1003	102.947		
+	0.1004	103.588		
+	0.1005	104.166		
+	0.1006	104.969		
+	0.1007	105.883		
+	0.1008	106.574		
+	0.1009	107.258		
+	0.101	107.998		
+	0.1011	108.707		
+	0.1012	109.13		
+	0.1013	109.547		
+	0.1014	110.113		
+	0.1015	110.312		
+	0.1016	110.53		
+	0.1017	110.872		
+	0.1018	111.052		
+	0.1019	111.108		
+	0.102	111.282		
+	0.1021	111.438		
+	0.1022	111.401		
+	0.1023	111.494		
+	0.1024	111.637		
+	0.1025	111.593		
+	0.1026	111.575		
+	0.1027	111.6		
+	0.1028	111.575		
+	0.1029	111.444		
+	0.103	111.587		
+	0.1031	111.68		
+	0.1032	111.699		
+	0.1033	111.824		
+	0.1034	112.159		
+	0.1035	112.166		
+	0.1036	112.302		
+	0.1037	112.489		
+	0.1038	112.47		
+	0.1039	112.278		
+	0.104	112.085		
+	0.1041	111.606		
+	0.1042	110.505		
+	0.1043	109.012		
+	0.1044	107.077		
+	0.1045	104.061		
+	0.1046	99.986		
+	0.1047	94.481		
+	0.1048	85.636		
+	0.1049	76.374		
+	0.105	69.059		
+	0.1051	62.752		
+	0.1052	56.612		
+	0.1053	51.101		
+	0.1054	45.988		
+	0.1055	41.099		
+	0.1056	36.428		
+	0.1057	32.303		
+	0.1058	28.36		
+	0.1059	24.553		
+	0.106	21.151		
+	0.1061	18.034		
+	0.1062	14.893		
+	0.1063	12.125		
+	0.1064	9.798		
+	0.1065	7.466		
+	0.1066	5.457		
+	0.1067	3.808		
+	0.1068	2.235		
+	0.1069	0.866		
+	0.107	-0.073		
+	0.1071	-0.838		
+	0.1072	-1.622		
+	0.1073	-2.176		
+	0.1074	-2.431		
+	0.1075	-2.729		
+	0.1076	-3.009		
+	0.1077	-2.99		
+	0.1078	-3.059		
+	0.1079	-3.165		
+	0.108	-3.14		
+	0.1081	-2.966		
+	0.1082	-3.034		
+	0.1083	-3.003		
+	0.1084	-2.903		
+	0.1085	-2.866		
+	0.1086	-2.76		
+	0.1087	-2.679		
+	0.1088	-2.493		
+	0.1089	-2.561		
+	0.109	-2.474		
+	0.1091	-2.275		
+	0.1092	-2.356		
+	0.1093	-2.387		
+	0.1094	-2.232		
+	0.1095	-2.225		
+	0.1096	-2.325		
+	0.1097	-2.132		
+	0.1098	-2.132		
+	0.1099	-2.207		
+	0.11	-2.151		
+	0.1101	-2.039		
+	0.1102	-2.051		
+	0.1103	-2.045		
+	0.1104	-1.815		
+	0.1105	-1.815		
+	0.1106	-1.858		
+	0.1107	-1.697		
+	0.1108	-1.634		
+	0.1109	-1.665		
+	0.111	-1.554		
+	0.1111	-1.485		
+	0.1112	-1.473		
+	0.1113	-1.554		
+	0.1114	-1.354		
+	0.1115	-1.292		
+	0.1116	-1.317		
+	0.1117	-1.118		
+	0.1118	-1.087		
+	0.1119	-1.019		
+	0.112	-0.95		
+	0.1121	-0.776		
+	0.1122	-0.82		
+	0.1123	-0.826		
+	0.1124	-0.639		
+	0.1125	-0.552		
+	0.1126	-0.701		
+	0.1127	-0.62		
+	0.1128	-0.502		
+	0.1129	-0.664		
+	0.113	-0.602		
+	0.1131	-0.428		
+	0.1132	-0.49		
+	0.1133	-0.54		
+	0.1134	-0.328		
+	0.1135	-0.129		
+	0.1136	0.219		
+	0.1137	0.922		
+	0.1138	1.868		
+	0.1139	3.012		
+	0.114	4.972		
+	0.1141	7.814		
+	0.1142	10.949		
+	0.1143	14.314		
+	0.1144	18.271		
+	0.1145	22.494		
+	0.1146	26.985		
+	0.1147	32.073		
+	0.1148	37.392		
+	0.1149	42.897		
+	0.115	48.881		
+	0.1151	55.169		
+	0.1152	61.433		
+	0.1153	67.747		
+	0.1154	74.259		
+	0.1155	80.492		
+	0.1156	86.034		
+	0.1157	90.712		
+	0.1158	94.388		
+	0.1159	96.895		
+	0.116	98.761		
+	0.1161	100.167		
+	0.1162	101.013		
+	0.1163	101.597		
+	0.1164	102.157		
+	0.1165	102.686		
+	0.1166	103.096		
+	0.1167	103.762		
+	0.1168	104.62		
+	0.1169	105.342		
+	0.117	106.151		
+	0.1171	107.109		
+	0.1172	107.724		
+	0.1173	108.433		
+	0.1174	109.062		
+	0.1175	109.634		
+	0.1176	109.945		
+	0.1177	110.318		
+	0.1178	110.685		
+	0.1179	110.822		
+	0.118	110.99		
+	0.1181	111.307		
+	0.1182	111.382		
+	0.1183	111.338		
+	0.1184	111.556		
+	0.1185	111.693		
+	0.1186	111.643		
+	0.1187	111.755		
+	0.1188	111.898		
+	0.1189	111.792		
+	0.119	111.824		
+	0.1191	111.935		
+	0.1192	111.96		
+	0.1193	111.911		
+	0.1194	112.029		
+	0.1195	112.147		
+	0.1196	112.178		
+	0.1197	112.377		
+	0.1198	112.62		
+	0.1199	112.626		
+	0.12	112.607		
+	0.1201	112.701		
+	0.1202	112.557		
+	0.1203	111.998		
+	0.1204	111.519		
+	0.1205	110.48		
+	0.1206	108.676		
+	0.1207	106.412		
+	0.1208	103.314		
+	0.1209	98.68		
+	0.121	92.062		
+	0.1211	82.551		
+	0.1212	74.01		
+	0.1213	67.031		
+	0.1214	60.823		
+	0.1215	55.07		
+	0.1216	49.459		
+	0.1217	44.346		
+	0.1218	39.737		
+	0.1219	35.277		
+	0.122	31.115		
+	0.1221	27.383		
+	0.1222	23.726		
+	0.1223	20.249		
+	0.1224	17.188		
+	0.1225	14.445		
+	0.1226	11.665		
+	0.1227	9.12		
+	0.1228	7.136		
+	0.1229	5.115		
+	0.123	3.354		
+	0.1231	1.924		
+	0.1232	0.742		
+	0.1233	-0.421		
+	0.1234	-1.205		
+	0.1235	-1.734		
+	0.1236	-2.238		
+	0.1237	-2.661		
+	0.1238	-2.686		
+	0.1239	-2.903		
+	0.124	-3.084		
+	0.1241	-3.015		
+	0.1242	-2.885		
+	0.1243	-3.015		
+	0.1244	-2.99		
+	0.1245	-2.928		
+	0.1246	-2.953		
+	0.1247	-2.816		
+	0.1248	-2.742		
+	0.1249	-2.791		
+	0.125	-2.698		
+	0.1251	-2.599		
+	0.1252	-2.418		
+	0.1253	-2.468		
+	0.1254	-2.368		
+	0.1255	-2.194		
+	0.1256	-2.244		
+	0.1257	-2.238		
+	0.1258	-2.076		
+	0.1259	-2.126		
+	0.126	-2.107		
+	0.1261	-2.07		
+	0.1262	-1.989		
+	0.1263	-2.151		
+	0.1264	-2.014		
+	0.1265	-1.958		
+	0.1266	-2.001		
+	0.1267	-2.001		
+	0.1268	-1.833		
+	0.1269	-1.74		
+	0.127	-1.74		
+	0.1271	-1.572		
+	0.1272	-1.541		
+	0.1273	-1.554		
+	0.1274	-1.435		
+	0.1275	-1.342		
+	0.1276	-1.267		
+	0.1277	-1.286		
+	0.1278	-1.199		
+	0.1279	-1.099		
+	0.128	-1.193		
+	0.1281	-1.056		
+	0.1282	-0.969		
+	0.1283	-0.981		
+	0.1284	-0.876		
+	0.1285	-0.726		
+	0.1286	-0.701		
+	0.1287	-0.683		
+	0.1288	-0.564		
+	0.1289	-0.515		
+	0.129	-0.54		
+	0.1291	-0.533		
+	0.1292	-0.421		
+	0.1293	-0.434		
+	0.1294	-0.527		
+	0.1295	-0.378		
+	0.1296	-0.334		
+	0.1297	-0.316		
+	0.1298	0.02		
+	0.1299	0.393		
+	0.13	0.991		
+	0.1301	1.936		
+	0.1302	3.553		
+	0.1303	5.587		
+	0.1304	8.424		
+	0.1305	11.665		
+	0.1306	15.21		
+	0.1307	19.154		
+	0.1308	23.545		
+	0.1309	28.229		
+	0.131	33.199		
+	0.1311	38.518		
+	0.1312	44.259		
+	0.1313	50.106		
+	0.1314	56.283		
+	0.1315	62.727		
+	0.1316	68.966		
+	0.1317	75.242		
+	0.1318	81.462		
+	0.1319	87.011		
+	0.132	91.508		
+	0.1321	94.942		
+	0.1322	97.43		
+	0.1323	99.296		
+	0.1324	100.478		
+	0.1325	101.473		
+	0.1326	102.07		
+	0.1327	102.437		
+	0.1328	103.016		
+	0.1329	103.582		
+	0.133	104.092		
+	0.1331	104.844		
+	0.1332	105.697		
+	0.1333	106.468		
+	0.1334	107.245		
+	0.1335	108.017		
+	0.1336	108.794		
+	0.1337	109.304		
+	0.1338	109.883		
+	0.1339	110.356		
+	0.134	110.648		
+	0.1341	110.953		
+	0.1342	111.332		
+	0.1343	111.519		
+	0.1344	111.531		
+	0.1345	111.774		
+	0.1346	111.848		
+	0.1347	111.867		
+	0.1348	111.929		
+	0.1349	112.035		
+	0.135	111.96		
+	0.1351	112.023		
+	0.1352	112.116		
+	0.1353	112.141		
+	0.1354	112.191		
+	0.1355	112.271		
+	0.1356	112.327		
+	0.1357	112.433		
+	0.1358	112.613		
+	0.1359	112.781		
+	0.136	112.875		
+	0.1361	112.999		
+	0.1362	113.161		
+	0.1363	113.18		
+	0.1364	113.08		
+	0.1365	113.012		
+	0.1366	112.533		
+	0.1367	111.861		
+	0.1368	110.803		
+	0.1369	109.143		
+	0.137	106.798		
+	0.1371	103.644		
+	0.1372	99.091		
+	0.1373	92.572		
+	0.1374	83.024		
+	0.1375	74.608		
+	0.1376	67.778		
+	0.1377	61.371		
+	0.1378	55.505		
+	0.1379	50.1		
+	0.138	44.999		
+	0.1381	40.234		
+	0.1382	35.756		
+	0.1383	31.613		
+	0.1384	27.688		
+	0.1385	24.049		
+	0.1386	20.728		
+	0.1387	17.543		
+	0.1388	14.663		
+	0.1389	12.056		
+	0.139	9.618		
+	0.1391	7.354		
+	0.1392	5.475		
+	0.1393	3.696		
+	0.1394	2.185		
+	0.1395	0.991		
+	0.1396	-0.104		
+	0.1397	-1.012		
+	0.1398	-1.709		
+	0.1399	-2.157		
+	0.14	-2.555		
+	0.1401	-2.86		
+	0.1402	-2.941		
+	0.1403	-2.934		
+	0.1404	-3.009		
+	0.1405	-2.978		
+	0.1406	-2.878		
+	0.1407	-2.829		
+	0.1408	-2.866		
+	0.1409	-2.742		
+	0.141	-2.735		
+	0.1411	-2.71		
+	0.1412	-2.642		
+	0.1413	-2.574		
+	0.1414	-2.555		
+	0.1415	-2.474		
+	0.1416	-2.487		
+	0.1417	-2.387		
+	0.1418	-2.393		
+	0.1419	-2.263		
+	0.142	-2.132		
+	0.1421	-2.151		
+	0.1422	-2.107		
+	0.1423	-2.02		
+	0.1424	-2.001		
+	0.1425	-1.958		
+	0.1426	-1.939		
+	0.1427	-1.933		
+	0.1428	-1.989		
+	0.1429	-1.939		
+	0.143	-1.858		
+	0.1431	-1.846		
+	0.1432	-1.74		
+	0.1433	-1.709		
+	0.1434	-1.647		
+	0.1435	-1.597		
+	0.1436	-1.498		
+	0.1437	-1.386		
+	0.1438	-1.342		
+	0.1439	-1.274		
+	0.144	-1.218		
+	0.1441	-1.174		
+	0.1442	-1.087		
+	0.1443	-0.975		
+	0.1444	-0.981		
+	0.1445	-0.931		
+	0.1446	-0.894		
+	0.1447	-0.788		
+	0.1448	-0.732		
+	0.1449	-0.695		
+	0.145	-0.676		
+	0.1451	-0.633		
+	0.1452	-0.533		
+	0.1453	-0.365		
+	0.1454	-0.434		
+	0.1455	-0.434		
+	0.1456	-0.328		
+	0.1457	-0.309		
+	0.1458	-0.272		
+	0.1459	-0.185		
+	0.146	-0.067		
+	0.1461	0.182		
+	0.1462	0.617		
+	0.1463	1.407		
+	0.1464	2.552		
+	0.1465	4.244		
+	0.1466	6.614		
+	0.1467	9.587		
+	0.1468	12.809		
+	0.1469	16.61		
+	0.147	20.765		
+	0.1471	25.194		
+	0.1472	29.94		
+	0.1473	35.103		
+	0.1474	40.508		
+	0.1475	46.243		
+	0.1476	52.333		
+	0.1477	58.59		
+	0.1478	64.736		
+	0.1479	71.006		
+	0.148	77.351		
+	0.1481	83.285		
+	0.1482	88.466		
+	0.1483	92.702		
+	0.1484	95.844		
+	0.1485	98.064		
+	0.1486	99.831		
+	0.1487	101		
+	0.1488	101.734		
+	0.1489	102.362		
+	0.149	102.916		
+	0.1491	103.345		
+	0.1492	103.936		
+	0.1493	104.614		
+	0.1494	105.373		
+	0.1495	106.039		
+	0.1496	106.816		
+	0.1497	107.78		
+	0.1498	108.384		
+	0.1499	109.062		
+	0.15	109.671		
+	0.1501	110.094		
+	0.1502	110.567		
+	0.1503	110.984		
+	0.1504	111.239		
+	0.1505	111.519		
+	0.1506	111.749		
+	0.1507	111.948		
+	0.1508	111.979		
+	0.1509	112.11		
+	0.151	112.191		
+	0.1511	112.191		
+	0.1512	112.271		
+	0.1513	112.296		
+	0.1514	112.365		
+	0.1515	112.346		
+	0.1516	112.278		
+	0.1517	112.421		
+	0.1518	112.396		
+	0.1519	112.489		
+	0.152	112.763		
+	0.1521	112.987		
+	0.1522	113.049		
+	0.1523	113.323		
+	0.1524	113.522		
+	0.1525	113.559		
+	0.1526	113.584		
+	0.1527	113.54		
+	0.1528	113.217		
+	0.1529	112.719		
+	0.153	111.985		
+	0.1531	110.754		
+	0.1532	108.944		
+	0.1533	106.487		
+	0.1534	103.04		
+	0.1535	98.195		
+	0.1536	91.035		
+	0.1537	81.556		
+	0.1538	73.444		
+	0.1539	66.745		
+	0.154	60.631		
+	0.1541	54.852		
+	0.1542	49.44		
+	0.1543	44.458		
+	0.1544	39.78		
+	0.1545	35.351		
+	0.1546	31.178		
+	0.1547	27.47		
+	0.1548	23.775		
+	0.1549	20.398		
+	0.155	17.269		
+	0.1551	14.402		
+	0.1552	11.652		
+	0.1553	9.382		
+	0.1554	7.267		
+	0.1555	5.27		
+	0.1556	3.547		
+	0.1557	2.172		
+	0.1558	0.891		
+	0.1559	-0.16		
+	0.156	-0.913		
+	0.1561	-1.572		
+	0.1562	-2.182		
+	0.1563	-2.499		
+	0.1564	-2.723		
+	0.1565	-2.922		
+	0.1566	-3.04		
+	0.1567	-2.997		
+	0.1568	-3.028		
+	0.1569	-3.015		
+	0.157	-2.86		
+	0.1571	-2.748		
+	0.1572	-2.735		
+	0.1573	-2.717		
+	0.1574	-2.574		
+	0.1575	-2.53		
+	0.1576	-2.561		