.subckt ecg n1 n2				
vin n1 n2 pwl				
+	0.0001	0.84934663		
+	0.0002	0.86012948		
+	0.0003	0.88099758		
+	0.0004	0.88138071		
+	0.0005	0.8782381		
+	0.0006	0.87514976		
+	0.0007	0.88580609		
+	0.0008	0.88444072		
+	0.0009	0.89321629		
+	0.001	0.88178824		
+	0.0011	0.88994316		
+	0.0012	0.88955006		
+	0.0013	0.89383242		
+	0.0014	0.88543983		
+	0.0015	0.88732395		
+	0.0016	0.90098087		
+	0.0017	0.91044309		
+	0.0018	0.89772692		
+	0.0019	0.9105633		
+	0.002	0.91836327		
+	0.0021	0.91400666		
+	0.0022	0.9241377		
+	0.0023	0.9135295		
+	0.0024	0.92643908		
+	0.0025	0.91982628		
+	0.0026	0.91714282		
+	0.0027	0.93814095		
+	0.0028	0.92773108		
+	0.0029	0.94693186		
+	0.003	0.95004493		
+	0.0031	0.96147651		
+	0.0032	0.96913823		
+	0.0033	0.98216212		
+	0.0034	0.97111864		
+	0.0035	0.97402266		
+	0.0036	0.97415236		
+	0.0037	0.96771027		
+	0.0038	0.97456181		
+	0.0039	0.97388006		
+	0.004	0.978335		
+	0.0041	0.96078967		
+	0.0042	0.96018427		
+	0.0043	0.95551332		
+	0.0044	0.96014455		
+	0.0045	0.95616897		
+	0.0046	0.94190751		
+	0.0047	0.93884085		
+	0.0048	0.94341827		
+	0.0049	0.946374		
+	0.005	0.93113991		
+	0.0051	0.93652093		
+	0.0052	0.93498496		
+	0.0053	0.94229587		
+	0.0054	0.92824146		
+	0.0055	0.93182816		
+	0.0056	0.9482858		
+	0.0057	0.94105171		
+	0.0058	0.95150803		
+	0.0059	0.96484336		
+	0.006	0.98301147		
+	0.0061	0.98213388		
+	0.0062	0.99001126		
+	0.0063	0.99488558		
+	0.0064	0.98264383		
+	0.0065	0.98432741		
+	0.0066	0.98680065		
+	0.0067	0.97420028		
+	0.0068	0.97257417		
+	0.0069	0.96846235		
+	0.007	0.97546497		
+	0.0071	0.96333275		
+	0.0072	0.95954651		
+	0.0073	0.94708182		
+	0.0074	0.93778489		
+	0.0075	0.93119208		
+	0.0076	0.90326348		
+	0.0077	0.90722793		
+	0.0078	0.89383384		
+	0.0079	0.87913513		
+	0.008	0.87551099		
+	0.0081	0.8763784		
+	0.0082	0.8672192		
+	0.0083	0.86570546		
+	0.0084	0.84843747		
+	0.0085	0.85498422		
+	0.0086	0.84974363		
+	0.0087	0.85556179		
+	0.0088	0.86496661		
+	0.0089	0.88023365		
+	0.009	0.88473828		
+	0.0091	0.88954507		
+	0.0092	0.88075561		
+	0.0093	0.88602876		
+	0.0094	0.87878353		
+	0.0095	0.87542498		
+	0.0096	0.86534305		
+	0.0097	0.87505189		
+	0.0098	0.86692341		
+	0.0099	0.86263038		
+	0.01	0.85624204		
+	0.0101	0.86203364		
+	0.0102	0.8446523		
+	0.0103	0.84025058		
+	0.0104	0.83281588		
+	0.0105	0.83384531		
+	0.0106	0.84452596		
+	0.0107	0.83129826		
+	0.0108	0.83151202		
+	0.0109	0.82272155		
+	0.011	0.83307705		
+	0.0111	0.81742778		
+	0.0112	0.82035897		
+	0.0113	0.82723979		
+	0.0114	0.81806908		
+	0.0115	0.82995629		
+	0.0116	0.84893364		
+	0.0117	0.85515527		
+	0.0118	0.86390635		
+	0.0119	0.87309616		
+	0.012	0.87470586		
+	0.0121	0.87302748		
+	0.0122	0.88004523		
+	0.0123	0.86763893		
+	0.0124	0.8697488		
+	0.0125	0.8791125		
+	0.0126	0.86440952		
+	0.0127	0.87722939		
+	0.0128	0.86159762		
+	0.0129	0.86332318		
+	0.013	0.85710807		
+	0.0131	0.84861945		
+	0.0132	0.8466127		
+	0.0133	0.85403973		
+	0.0134	0.84803914		
+	0.0135	0.83579578		
+	0.0136	0.84586849		
+	0.0137	0.82571621		
+	0.0138	0.83878578		
+	0.0139	0.83945027		
+	0.014	0.82641209		
+	0.0141	0.82718059		
+	0.0142	0.82061108		
+	0.0143	0.82874075		
+	0.0144	0.82543358		
+	0.0145	0.83598482		
+	0.0146	0.86175669		
+	0.0147	0.86473651		
+	0.0148	0.87175707		
+	0.0149	0.87187262		
+	0.015	0.88199112		
+	0.0151	0.8812959		
+	0.0152	0.87472951		
+	0.0153	0.88371576		
+	0.0154	0.87383907		
+	0.0155	0.877698		
+	0.0156	0.87141423		
+	0.0157	0.86727546		
+	0.0158	0.86306131		
+	0.0159	0.866797		
+	0.016	0.85176573		
+	0.0161	0.85061751		
+	0.0162	0.84621909		
+	0.0163	0.84174703		
+	0.0164	0.84108651		
+	0.0165	0.84277697		
+	0.0166	0.84159888		
+	0.0167	0.84924397		
+	0.0168	0.85128144		
+	0.0169	0.84586731		
+	0.017	0.84650899		
+	0.0171	0.85704503		
+	0.0172	0.84999745		
+	0.0173	0.85433392		
+	0.0174	0.87631409		
+	0.0175	0.88922903		
+	0.0176	0.9029057		
+	0.0177	0.93208343		
+	0.0178	0.94723825		
+	0.0179	0.94891789		
+	0.018	0.949071		
+	0.0181	0.96609913		
+	0.0182	0.97169376		
+	0.0183	0.97501335		
+	0.0184	0.96978961		
+	0.0185	0.97283958		
+	0.0186	0.97455651		
+	0.0187	0.97911257		
+	0.0188	0.97655597		
+	0.0189	0.96494314		
+	0.019	0.95791053		
+	0.0191	0.96662752		
+	0.0192	0.96152946		
+	0.0193	0.94634697		
+	0.0194	0.95586402		
+	0.0195	0.95226973		
+	0.0196	0.93911531		
+	0.0197	0.94811703		
+	0.0198	0.93509726		
+	0.0199	0.9403681		
+	0.02	0.94321358		
+	0.0201	0.93835687		
+	0.0202	0.94061058		
+	0.0203	0.94342754		
+	0.0204	0.96604423		
+	0.0205	0.97638568		
+	0.0206	0.99330916		
+	0.0207	0.99382547		
+	0.0208	1.0019221		
+	0.0209	1.0053997		
+	0.021	0.98751199		
+	0.0211	0.9968252		
+	0.0212	0.99804445		
+	0.0213	0.99779839		
+	0.0214	0.98921192		
+	0.0215	0.98858291		
+	0.0216	0.98772417		
+	0.0217	0.97545437		
+	0.0218	0.98314744		
+	0.0219	0.96466598		
+	0.022	0.96414426		
+	0.0221	0.97290278		
+	0.0222	0.95923536		
+	0.0223	0.95605623		
+	0.0224	0.95638128		
+	0.0225	0.94757521		
+	0.0226	0.94663575		
+	0.0227	0.95887845		
+	0.0228	0.94974322		
+	0.0229	0.94245165		
+	0.023	0.93834069		
+	0.0231	0.94839382		
+	0.0232	0.94926094		
+	0.0233	0.9639264		
+	0.0234	0.96647886		
+	0.0235	0.9779951		
+	0.0236	0.96997086		
+	0.0237	0.9704953		
+	0.0238	0.95447384		
+	0.0239	0.95923362		
+	0.024	0.94036098		
+	0.0241	0.93377722		
+	0.0242	0.93807193		
+	0.0243	0.92112418		
+	0.0244	0.91879834		
+	0.0245	0.91408166		
+	0.0246	0.89972898		
+	0.0247	0.88445927		
+	0.0248	0.87993527		
+	0.0249	0.87128714		
+	0.025	0.86642856		
+	0.0251	0.87143918		
+	0.0252	0.85044367		
+	0.0253	0.86407705		
+	0.0254	0.85775333		
+	0.0255	0.83727454		
+	0.0256	0.83761634		
+	0.0257	0.83319057		
+	0.0258	0.83568139		
+	0.0259	0.82738828		
+	0.026	0.83373496		
+	0.0261	0.84851088		
+	0.0262	0.85789724		
+	0.0263	0.86598384		
+	0.0264	0.86748123		
+	0.0265	0.87412555		
+	0.0266	0.88676978		
+	0.0267	0.87976495		
+	0.0268	0.89062735		
+	0.0269	0.88344032		
+	0.027	0.89221423		
+	0.0271	0.88097276		
+	0.0272	0.87264977		
+	0.0273	0.86777569		
+	0.0274	0.86536591		
+	0.0275	0.86581193		
+	0.0276	0.86396089		
+	0.0277	0.8651437		
+	0.0278	0.85523856		
+	0.0279	0.86444145		
+	0.028	0.84459212		
+	0.0281	0.84933133		
+	0.0282	0.84573436		
+	0.0283	0.85034487		
+	0.0284	0.84953874		
+	0.0285	0.84845044		
+	0.0286	0.83324994		
+	0.0287	0.84111458		
+	0.0288	0.83518942		
+	0.0289	0.83591577		
+	0.029	0.85047379		
+	0.0291	0.85739362		
+	0.0292	0.85577884		
+	0.0293	0.86505607		
+	0.0294	0.86876868		
+	0.0295	0.8893719		
+	0.0296	0.87878162		
+	0.0297	0.89773904		
+	0.0298	0.88145516		
+	0.0299	0.89566517		
+	0.03	0.8903824		
+	0.0301	0.88362579		
+	0.0302	0.88390253		
+	0.0303	0.87617527		
+	0.0304	0.86663823		
+	0.0305	0.86250666		
+	0.0306	0.86517256		
+	0.0307	0.87130895		
+	0.0308	0.85743425		
+	0.0309	0.86347381		
+	0.031	0.85599524		
+	0.0311	0.85482153		
+	0.0312	0.84437877		
+	0.0313	0.8536997		
+	0.0314	0.85013239		
+	0.0315	0.84852744		
+	0.0316	0.84397191		
+	0.0317	0.83412133		
+	0.0318	0.84282462		
+	0.0319	0.83483236		
+	0.032	0.8395685		
+	0.0321	0.86861606		
+	0.0322	0.87571503		
+	0.0323	0.88777517		
+	0.0324	0.88446732		
+	0.0325	0.88662863		
+	0.0326	0.89919086		
+	0.0327	0.89125695		
+	0.0328	0.89375417		
+	0.0329	0.89059183		
+	0.033	0.88864818		
+	0.0331	0.88615144		
+	0.0332	0.89544216		
+	0.0333	0.9058001		
+	0.0334	0.90695709		
+	0.0335	0.90481389		
+	0.0336	0.89898778		
+	0.0337	0.90844183		
+	0.0338	0.91484694		
+	0.0339	0.91281233		
+	0.034	0.90827537		
+	0.0341	0.9117027		
+	0.0342	0.90935939		
+	0.0343	0.92213464		
+	0.0344	0.92279916		
+	0.0345	0.9250502		
+	0.0346	0.92707024		
+	0.0347	0.94637156		
+	0.0348	0.94314874		
+	0.0349	0.94491626		
+	0.035	0.95981782		
+	0.0351	0.96784998		
+	0.0352	0.97761662		
+	0.0353	0.99478998		
+	0.0354	0.99647092		
+	0.0355	0.99321086		
+	0.0356	0.98921662		
+	0.0357	0.98907638		
+	0.0358	0.99759239		
+	0.0359	0.98807394		
+	0.036	0.9932705		
+	0.0361	0.9945637		
+	0.0362	0.9984927		
+	0.0363	0.98746497		
+	0.0364	0.98737771		
+	0.0365	0.98387083		
+	0.0366	0.97325019		
+	0.0367	0.9741259		
+	0.0368	0.9715199		
+	0.0369	0.97525512		
+	0.037	0.97352078		
+	0.0371	0.96912767		
+	0.0372	0.95310406		
+	0.0373	0.95490403		
+	0.0374	0.95750552		
+	0.0375	0.96066631		
+	0.0376	0.95050263		
+	0.0377	0.96301603		
+	0.0378	0.96600847		
+	0.0379	0.97013927		
+	0.038	0.97410796		
+	0.0381	0.98762474		
+	0.0382	0.99774006		
+	0.0383	1.0008392		
+	0.0384	1.0116725		
+	0.0385	1.0114857		
+	0.0386	1.0106765		
+	0.0387	1.0016319		
+	0.0388	1.0131608		
+	0.0389	1.0013278		
+	0.039	1.0034544		
+	0.0391	1.0000679		
+	0.0392	0.99583047		
+	0.0393	0.98150545		
+	0.0394	0.98283294		
+	0.0395	0.98227363		
+	0.0396	0.9638498		
+	0.0397	0.97001127		
+	0.0398	0.95771838		
+	0.0399	0.93892463		
+	0.04	0.93624586		
+	0.0401	0.92245278		
+	0.0402	0.91291488		
+	0.0403	0.89279018		
+	0.0404	0.90206616		
+	0.0405	0.8804997		
+	0.0406	0.8924684		
+	0.0407	0.89215217		
+	0.0408	0.88603464		
+	0.0409	0.89239133		
+	0.041	0.90478176		
+	0.0411	0.90739508		
+	0.0412	0.91584749		
+	0.0413	0.91030863		
+	0.0414	0.90153465		
+	0.0415	0.90077516		
+	0.0416	0.90753539		
+	0.0417	0.90700161		
+	0.0418	0.88577482		
+	0.0419	0.88091063		
+	0.042	0.88042378		
+	0.0421	0.87404131		
+	0.0422	0.88145111		
+	0.0423	0.86733574		
+	0.0424	0.87799498		
+	0.0425	0.85574019		
+	0.0426	0.85753504		
+	0.0427	0.85389553		
+	0.0428	0.84577533		
+	0.0429	0.8602717		
+	0.043	0.84665335		
+	0.0431	0.85486096		
+	0.0432	0.84575567		
+	0.0433	0.8494496		
+	0.0434	0.83567907		
+	0.0435	0.8472366		
+	0.0436	0.83787398		
+	0.0437	0.84752245		
+	0.0438	0.85833396		
+	0.0439	0.88239356		
+	0.044	0.89010943		
+	0.0441	0.88570275		
+	0.0442	0.89363783		
+	0.0443	0.89864035		
+	0.0444	0.89953936		
+	0.0445	0.89649614		
+	0.0446	0.89088938		
+	0.0447	0.88605953		
+	0.0448	0.89074869		
+	0.0449	0.87935828		
+	0.045	0.88677134		
+	0.0451	0.88287674		
+	0.0452	0.86760391		
+	0.0453	0.87937887		
+	0.0454	0.86580677		
+	0.0455	0.85750709		
+	0.0456	0.86170026		
+	0.0457	0.86664705		
+	0.0458	0.85328663		
+	0.0459	0.85713107		
+	0.046	0.84867396		
+	0.0461	0.85161621		
+	0.0462	0.84095454		
+	0.0463	0.84054		
+	0.0464	0.85518753		
+	0.0465	0.85482642		
+	0.0466	0.84925976		
+	0.0467	0.86871677		
+	0.0468	0.87468586		
+	0.0469	0.88159021		
+	0.047	0.90010695		
+	0.0471	0.89350623		
+	0.0472	0.90019772		
+	0.0473	0.89783905		
+	0.0474	0.90530542		
+	0.0475	0.88674804		
+	0.0476	0.89648487		
+	0.0477	0.89259335		
+	0.0478	0.89398923		
+	0.0479	0.88426247		
+	0.048	0.88274229		
+	0.0481	0.8860524		
+	0.0482	0.88210167		
+	0.0483	0.86810127		
+	0.0484	0.86072142		
+	0.0485	0.86002741		
+	0.0486	0.8599625		
+	0.0487	0.85022577		
+	0.0488	0.85400814		
+	0.0489	0.85932734		
+	0.049	0.85635325		
+	0.0491	0.86331591		
+	0.0492	0.85241827		
+	0.0493	0.86490519		
+	0.0494	0.86043835		
+	0.0495	0.8697959		
+	0.0496	0.88546624		
+	0.0497	0.89929338		
+	0.0498	0.90901473		
+	0.0499	0.94140256		
+	0.05	0.94896813		
+	0.0501	0.94539353		
+	0.0502	0.95719904		
+	0.0503	0.96931694		
+	0.0504	0.96076454		
+	0.0505	0.970512		
+	0.0506	0.97861704		
+	0.0507	0.97204953		
+	0.0508	0.98112572		
+	0.0509	0.98358458		
+	0.051	0.97007322		
+	0.0511	0.98230267		
+	0.0512	0.97854845		
+	0.0513	0.98012541		
+	0.0514	0.96351927		
+	0.0515	0.96760053		
+	0.0516	0.9695151		
+	0.0517	0.958758		
+	0.0518	0.95178299		
+	0.0519	0.95523035		
+	0.052	0.96747238		
+	0.0521	0.94998704		
+	0.0522	0.95585092		
+	0.0523	0.96425837		
+	0.0524	0.96248517		
+	0.0525	0.97308233		
+	0.0526	0.98764051		
+	0.0527	0.98497047		
+	0.0528	0.99459591		
+	0.0529	1.0186421		
+	0.053	1.0208472		
+	0.0531	1.0036277		
+	0.0532	1.0210984		
+	0.0533	1.0189623		
+	0.0534	1.014336		
+	0.0535	1.0132938		
+	0.0536	1.0024625		
+	0.0537	0.99851525		
+	0.0538	0.99843083		
+	0.0539	1.0018013		
+	0.054	0.99583962		
+	0.0541	0.98834473		
+	0.0542	0.98913265		
+	0.0543	0.97576677		
+	0.0544	0.9823955		
+	0.0545	0.97749563		
+	0.0546	0.96678029		
+	0.0547	0.96093499		
+	0.0548	0.96989924		
+	0.0549	0.96212648		
+	0.055	0.96778923		
+	0.0551	0.95838031		
+	0.0552	0.96887818		
+	0.0553	0.96365622		
+	0.0554	0.9683736		
+	0.0555	0.97987347		
+	0.0556	0.99680839		
+	0.0557	1.0043219		
+	0.0558	0.99345638		
+	0.0559	1.0026573		
+	0.056	0.99981695		
+	0.0561	0.98907052		
+	0.0562	0.97343035		
+	0.0563	0.961964		
+	0.0564	0.96214182		
+	0.0565	0.95589001		
+	0.0566	0.93815946		
+	0.0567	0.93040705		
+	0.0568	0.92156989		
+	0.0569	0.92095395		
+	0.057	0.91213169		
+	0.0571	0.90152705		
+	0.0572	0.89537255		
+	0.0573	0.89447574		
+	0.0574	0.8805148		
+	0.0575	0.88432625		
+	0.0576	0.87007251		
+	0.0577	0.86398778		
+	0.0578	0.86638719		
+	0.0579	0.84839792		
+	0.058	0.85126403		
+	0.0581	0.85734625		
+	0.0582	0.86492657		
+	0.0583	0.85883658		
+	0.0584	0.87442962		
+	0.0585	0.88374686		
+	0.0586	0.89701257		
+	0.0587	0.89742157		
+	0.0588	0.90783867		
+	0.0589	0.89567919		
+	0.059	0.9072055		
+	0.0591	0.8941315		
+	0.0592	0.89811848		
+	0.0593	0.90401729		
+	0.0594	0.90206463		
+	0.0595	0.89926399		
+	0.0596	0.88634239		
+	0.0597	0.88477779		
+	0.0598	0.88243045		
+	0.0599	0.88371948		
+	0.06	0.87007933		
+	0.0601	0.87531766		
+	0.0602	0.87136421		
+	0.0603	0.86083221		
+	0.0604	0.85847956		
+	0.0605	0.86341126		
+	0.0606	0.85855655		
+	0.0607	0.85159764		
+	0.0608	0.84900577		
+	0.0609	0.84199899		
+	0.061	0.84405669		
+	0.0611	0.85485113		
+	0.0612	0.85466853		
+	0.0613	0.85885236		
+	0.0614	0.87667862		
+	0.0615	0.88359468		
+	0.0616	0.88876218		
+	0.0617	0.90108866		
+	0.0618	0.89337983		
+	0.0619	0.90309782		
+	0.062	0.90120632		
+	0.0621	0.89934796		
+	0.0622	0.89507119		
+	0.0623	0.89047944		
+	0.0624	0.89505841		
+	0.0625	0.88574865		
+	0.0626	0.88425565		
+	0.0627	0.8857759		
+	0.0628	0.878188		
+	0.0629	0.87042111		
+	0.063	0.88129077		
+	0.0631	0.8648184		
+	0.0632	0.86019662		
+	0.0633	0.85774451		
+	0.0634	0.85013983		
+	0.0635	0.85628184		
+	0.0636	0.865366		
+	0.0637	0.85733669		
+	0.0638	0.84808185		
+	0.0639	0.85190178		
+	0.064	0.84766824		
+	0.0641	0.85256883		
+	0.0642	0.87351457		
+	0.0643	0.88151758		
+	0.0644	0.87743068		
+	0.0645	0.89367675		
+	0.0646	0.90221935		
+	0.0647	0.91274856		
+	0.0648	0.91046466		
+	0.0649	0.91097152		
+	0.065	0.90717258		
+	0.0651	0.90933916		
+	0.0652	0.91229334		
+	0.0653	0.89301002		
+	0.0654	0.89588069		
+	0.0655	0.89697885		
+	0.0656	0.90460743		
+	0.0657	0.90179915		
+	0.0658	0.89779701		
+	0.0659	0.9083126		
+	0.066	0.90296983		
+	0.0661	0.90605288		
+	0.0662	0.91764609		
+	0.0663	0.90784293		
+	0.0664	0.9091655		
+	0.0665	0.91330976		
+	0.0666	0.92444872		
+	0.0667	0.93225042		
+	0.0668	0.94406514		
+	0.0669	0.93199227		
+	0.067	0.95023788		
+	0.0671	0.96327911		
+	0.0672	0.96594452		
+	0.0673	0.99068467		
+	0.0674	0.98640893		
+	0.0675	0.99929117		
+	0.0676	1.0093096		
+	0.0677	1.0138648		
+	0.0678	1.0145851		
+	0.0679	1.0043296		
+	0.068	1.0063478		
+	0.0681	1.0130399		
+	0.0682	1.0008691		
+	0.0683	0.99351492		
+	0.0684	0.99045172		
+	0.0685	0.9912022		
+	0.0686	0.9941811		
+	0.0687	0.99508592		
+	0.0688	0.98379928		
+	0.0689	0.98717157		
+	0.069	0.98597589		
+	0.0691	0.97801338		
+	0.0692	0.97484378		
+	0.0693	0.97233185		
+	0.0694	0.96369148		
+	0.0695	0.9629179		
+	0.0696	0.96649629		
+	0.0697	0.96377555		
+	0.0698	0.97116529		
+	0.0699	0.97435498		
+	0.07	0.98414391		
+	0.0701	0.97779231		
+	0.0702	0.99921287		
+	0.0703	1.007552		
+	0.0704	1.0181981		
+	0.0705	1.0257221		
+	0.0706	1.0276318		
+	0.0707	1.0265525		
+	0.0708	1.0218011		
+	0.0709	1.022797		
+	0.071	1.0101189		
+	0.0711	1.0055337		
+	0.0712	1.0072645		
+	0.0713	0.99772686		
+	0.0714	1.0030011		
+	0.0715	1.0049476		
+	0.0716	0.99006171		
+	0.0717	0.98686674		
+	0.0718	0.9913741		
+	0.0719	0.98178419		
+	0.072	0.97556435		
+	0.0721	0.97279932		
+	0.0722	0.95152071		
+	0.0723	0.95208761		
+	0.0724	0.94134052		
+	0.0725	0.93641329		
+	0.0726	0.91791504		
+	0.0727	0.9110313		
+	0.0728	0.91446733		
+	0.0729	0.9032002		
+	0.073	0.90654783		
+	0.0731	0.91398154		
+	0.0732	0.91500469		
+	0.0733	0.93570204		
+	0.0734	0.92306762		
+	0.0735	0.92861483		
+	0.0736	0.92839988		
+	0.0737	0.91690647		
+	0.0738	0.91056934		
+	0.0739	0.91091946		
+	0.074	0.89920644		
+	0.0741	0.90596982		
+	0.0742	0.90852205		
+	0.0743	0.89529231		
+	0.0744	0.89631938		
+	0.0745	0.88012431		
+	0.0746	0.87845952		
+	0.0747	0.86894235		
+	0.0748	0.86046736		
+	0.0749	0.87426986		
+	0.075	0.86820691		
+	0.0751	0.85707761		
+	0.0752	0.8623189		
+	0.0753	0.84937607		
+	0.0754	0.84559523		
+	0.0755	0.85540763		
+	0.0756	0.85816647		
+	0.0757	0.85388244		
+	0.0758	0.85689876		
+	0.0759	0.87586291		
+	0.076	0.87211336		
+	0.0761	0.89283971		
+	0.0762	0.90068961		
+	0.0763	0.89724182		
+	0.0764	0.90055136		
+	0.0765	0.91008128		
+	0.0766	0.90589916		
+	0.0767	0.91166754		
+	0.0768	0.89428423		
+	0.0769	0.89457463		
+	0.077	0.89513329		
+	0.0771	0.8871196		
+	0.0772	0.89756769		
+	0.0773	0.88896732		
+	0.0774	0.8880343		
+	0.0775	0.88083801		
+	0.0776	0.86608062		
+	0.0777	0.87925943		
+	0.0778	0.87637191		
+	0.0779	0.85968032		
+	0.078	0.86816159		
+	0.0781	0.8568773		
+	0.0782	0.85503468		
+	0.0783	0.85921278		
+	0.0784	0.84931616		
+	0.0785	0.85733932		
+	0.0786	0.85900911		
+	0.0787	0.86485692		
+	0.0788	0.8702034		
+	0.0789	0.87528716		
+	0.079	0.87636709		
+	0.0791	0.88863483		
+	0.0792	0.89758491		
+	0.0793	0.90130491		
+	0.0794	0.89964129		
+	0.0795	0.90600097		
+	0.0796	0.89609155		
+	0.0797	0.89358971		
+	0.0798	0.90792473		
+	0.0799	0.89119763		
+	0.08	0.89382087		
+	0.0801	0.89213271		
+	0.0802	0.88574332		
+	0.0803	0.88546941		
+	0.0804	0.87725278		
+	0.0805	0.88365472		
+	0.0806	0.86694514		
+	0.0807	0.86828721		
+	0.0808	0.86206242		
+	0.0809	0.87379817		
+	0.081	0.86223968		
+	0.0811	0.86063692		
+	0.0812	0.86540704		
+	0.0813	0.84982109		
+	0.0814	0.85257374		
+	0.0815	0.86450974		
+	0.0816	0.85878725		
+	0.0817	0.86821421		
+	0.0818	0.8862221		
+	0.0819	0.90687577		
+	0.082	0.91560174		
+	0.0821	0.91972677		
+	0.0822	0.93292984		
+	0.0823	0.95306043		
+	0.0824	0.94866464		
+	0.0825	0.95853809		
+	0.0826	0.96157056		
+	0.0827	0.96763367		
+	0.0828	0.96896564		
+	0.0829	0.9761487		
+	0.083	0.98469324		
+	0.0831	0.98429464		
+	0.0832	0.97165807		
+	0.0833	0.97976494		
+	0.0834	0.96938756		
+	0.0835	0.97156616		
+	0.0836	0.97203242		
+	0.0837	0.97574135		
+	0.0838	0.96735775		
+	0.0839	0.96726321		
+	0.084	0.96306346		
+	0.0841	0.96738996		
+	0.0842	0.95389866		
+	0.0843	0.9605485		
+	0.0844	0.95687695		
+	0.0845	0.95562367		
+	0.0846	0.9623826		
+	0.0847	0.98420391		
+	0.0848	0.98733898		
+	0.0849	1.0055411		
+	0.085	1.0172531		
+	0.0851	1.0259179		
+	0.0852	1.0192947		
+	0.0853	1.0200178		
+	0.0854	1.0088431		
+	0.0855	1.0243635		
+	0.0856	1.0205508		
+	0.0857	1.0152549		
+	0.0858	1.0079297		
+	0.0859	1.0060767		
+	0.086	1.0033098		
+	0.0861	0.99876279		
+	0.0862	0.99822766		
+	0.0863	0.98638703		
+	0.0864	0.99475366		
+	0.0865	0.98495053		
+	0.0866	0.97976277		
+	0.0867	0.96884626		
+	0.0868	0.98316783		
+	0.0869	0.97477195		
+	0.087	0.96666806		
+	0.0871	0.97518878		
+	0.0872	0.95926147		
+	0.0873	0.97404641		
+	0.0874	0.97494005		
+	0.0875	0.97680683		
+	0.0876	0.9769263		
+	0.0877	0.98566843		
+	0.0878	0.99328871		
+	0.0879	1.0130787		
+	0.088	1.0072997		
+	0.0881	1.0228112		
+	0.0882	1.0113443		
+	0.0883	1.0104145		
+	0.0884	1.0098691		
+	0.0885	1.0015129		
+	0.0886	0.98117251		
+	0.0887	0.97560043		
+	0.0888	0.96600029		
+	0.0889	0.9463747		
+	0.089	0.93469252		
+	0.0891	0.93082917		
+	0.0892	0.91853146		
+	0.0893	0.91606117		
+	0.0894	0.91411733		
+	0.0895	0.90887346		
+	0.0896	0.89019157		
+	0.0897	0.88363761		
+	0.0898	0.88916775		
+	0.0899	0.86751205		
+	0.09	0.8697999		
+	0.0901	0.86823871		
+	0.0902	0.86444304		
+	0.0903	0.85275733		
+	0.0904	0.86425804		
+	0.0905	0.87384529		
+	0.0906	0.87329329		
+	0.0907	0.88908901		
+	0.0908	0.89127483		
+	0.0909	0.90665238		
+	0.091	0.90770583		
+	0.0911	0.89810294		
+	0.0912	0.9048149		
+	0.0913	0.90651438		
+	0.0914	0.9087347		
+	0.0915	0.90310667		
+	0.0916	0.88923098		
+	0.0917	0.89703225		
+	0.0918	0.89485623		
+	0.0919	0.87833418		
+	0.092	0.88490356		
+	0.0921	0.88729179		
+	0.0922	0.87222706		
+	0.0923	0.86342138		
+	0.0924	0.86459139		
+	0.0925	0.87207615		
+	0.0926	0.86437036		
+	0.0927	0.85369888		
+	0.0928	0.86199775		
+	0.0929	0.85533742		
+	0.093	0.85785401		
+	0.0931	0.85393508		
+	0.0932	0.86207847		
+	0.0933	0.84733574		
+	0.0934	0.86432118		
+	0.0935	0.87361139		
+	0.0936	0.89028853		
+	0.0937	0.88699175		
+	0.0938	0.8930137		
+	0.0939	0.90317962		
+	0.094	0.90766829		
+	0.0941	0.9020673		
+	0.0942	0.91250005		
+	0.0943	0.90941613		
+	0.0944	0.8972434		
+	0.0945	0.89671664		
+	0.0946	0.89346316		
+	0.0947	0.89311999		
+	0.0948	0.88190091		
+	0.0949	0.88982765		
+	0.095	0.87688524		
+	0.0951	0.8783532		
+	0.0952	0.87467319		
+	0.0953	0.86356158		
+	0.0954	0.8625881		
+	0.0955	0.87193933		
+	0.0956	0.8604962		
+	0.0957	0.86516175		
+	0.0958	0.85455146		
+	0.0959	0.8567251		
+	0.096	0.84465907		
+	0.0961	0.85807866		
+	0.0962	0.85083489		
+	0.0963	0.86058972		
+	0.0964	0.86417927		
+	0.0965	0.87347914		
+	0.0966	0.90005185		
+	0.0967	0.89369754		
+	0.0968	0.91399867		
+	0.0969	0.91569751		
+	0.097	0.91410307		
+	0.0971	0.89803595		
+	0.0972	0.89531413		
+	0.0973	0.9110507		
+	0.0974	0.89351691		
+	0.0975	0.89627684		
+	0.0976	0.90479412		
+	0.0977	0.88969361		
+	0.0978	0.90075931		
+	0.0979	0.88622929		
+	0.098	0.88952262		
+	0.0981	0.89600138		
+	0.0982	0.88245525		
+	0.0983	0.89551014		
+	0.0984	0.88602286		
+	0.0985	0.88668123		
+	0.0986	0.90278761		
+	0.0987	0.89533144		
+	0.0988	0.91732237		
+	0.0989	0.90904215		
+	0.099	0.92367918		
+	0.0991	0.91930466		
+	0.0992	0.93300294		
+	0.0993	0.95289028		
+	0.0994	0.97525479		
+	0.0995	0.98353346		
+	0.0996	0.98431153		
+	0.0997	1.0045631		
+	0.0998	1.0056546		
+	0.0999	1.0006985		
+	0.1	0.9978889		
+	0.1001	1.0034096		
+	0.1002	1.0088153		
+	0.1003	1.0002755		
+	0.1004	0.99593999		
+	0.1005	0.99217466		
+	0.1006	0.99331044		
+	0.1007	1.0015456		
+	0.1008	0.98778337		
+	0.1009	0.99365087		
+	0.101	0.98405929		
+	0.1011	0.97962224		
+	0.1012	0.9746012		
+	0.1013	0.98233417		
+	0.1014	0.97951615		
+	0.1015	0.97604611		
+	0.1016	0.97764474		
+	0.1017	0.95771967		
+	0.1018	0.96996793		
+	0.1019	0.97444609		
+	0.102	0.96233684		
+	0.1021	0.97616288		
+	0.1022	0.98476555		
+	0.1023	0.99090532		
+	0.1024	1.0003628		
+	0.1025	1.0099517		
+	0.1026	1.0052981		
+	0.1027	1.0121433		
+	0.1028	1.0248498		
+	0.1029	1.0117122		
+	0.103	1.0064586		
+	0.1031	1.0225348		
+	0.1032	1.0081365		
+	0.1033	1.0135612		
+	0.1034	1.0130296		
+	0.1035	1.0036642		
+	0.1036	1.0055253		
+	0.1037	0.99128157		
+	0.1038	0.98772893		
+	0.1039	0.99060345		
+	0.104	0.97719887		
+	0.1041	0.97005986		
+	0.1042	0.98287291		
+	0.1043	0.96520014		
+	0.1044	0.9667874		
+	0.1045	0.96925897		
+	0.1046	0.95524996		
+	0.1047	0.95165816		
+	0.1048	0.93255654		
+	0.1049	0.9360509		
+	0.105	0.91705683		
+	0.1051	0.91891802		
+	0.1052	0.93576976		
+	0.1053	0.93828743		
+	0.1054	0.94130003		
+	0.1055	0.94982098		
+	0.1056	0.94710383		
+	0.1057	0.93967815		
+	0.1058	0.92828614		
+	0.1059	0.93379838		
+	0.106	0.92325617		
+	0.1061	0.92026093		
+	0.1062	0.90233272		
+	0.1063	0.91538681		
+	0.1064	0.907913		
+	0.1065	0.89155014		
+	0.1066	0.8964705		
+	0.1067	0.88170936		
+	0.1068	0.87305272		
+	0.1069	0.86851124		
+	0.107	0.87305102		
+	0.1071	0.8574815		
+	0.1072	0.86410003		
+	0.1073	0.8590001		
+	0.1074	0.85968922		
+	0.1075	0.84978193		
+	0.1076	0.84257796		
+	0.1077	0.84196599		
+	0.1078	0.8512177		
+	0.1079	0.85734684		
+	0.108	0.84839482		
+	0.1081	0.86327106		
+	0.1082	0.88508141		
+	0.1083	0.88498108		
+	0.1084	0.89883249		
+	0.1085	0.89830762		
+	0.1086	0.90610668		
+	0.1087	0.89769164		
+	0.1088	0.89309321		
+	0.1089	0.90104134		
+	0.109	0.89136463		
+	0.1091	0.89502741		
+	0.1092	0.89566808		
+	0.1093	0.88489887		
+	0.1094	0.87600025		
+	0.1095	0.88372021		
+	0.1096	0.87617228		
+	0.1097	0.87717788		
+	0.1098	0.87311168		
+	0.1099	0.86954655		
+	0.11	0.85722309		
+	0.1101	0.86822097		
+	0.1102	0.84942142		
+	0.1103	0.8485135		
+	0.1104	0.84445973		
+	0.1105	0.84303547		
+	0.1106	0.85096447		
+	0.1107	0.85189584		
+	0.1108	0.85825264		
+	0.1109	0.85742277		
+	0.111	0.86485456		
+	0.1111	0.86905523		
+	0.1112	0.88576001		
+	0.1113	0.90046725		
+	0.1114	0.90426184		
+	0.1115	0.9077307		
+	0.1116	0.91039486		
+	0.1117	0.90654961		
+	0.1118	0.90613009		
+	0.1119	0.90623753		
+	0.112	0.89441633		
+	0.1121	0.88916881		
+	0.1122	0.89786219		
+	0.1123	0.88298051		
+	0.1124	0.8777355		
+	0.1125	0.87616784		
+	0.1126	0.88272937		
+	0.1127	0.86441216		
+	0.1128	0.86043697		
+	0.1129	0.86631815		
+	0.113	0.86997994		
+	0.1131	0.86375957		
+	0.1132	0.85191465		
+	0.1133	0.84765797		
+	0.1134	0.84858168		
+	0.1135	0.85293103		
+	0.1136	0.84495729		
+	0.1137	0.86180626		
+	0.1138	0.86157634		
+	0.1139	0.85724069		
+	0.114	0.87948921		
+	0.1141	0.89038712		
+	0.1142	0.90338852		
+	0.1143	0.90908383		
+	0.1144	0.9220215		
+	0.1145	0.92860207		
+	0.1146	0.92313371		
+	0.1147	0.92724267		
+	0.1148	0.92756106		
+	0.1149	0.93823677		
+	0.115	0.95001542		
+	0.1151	0.94129994		
+	0.1152	0.94274019		
+	0.1153	0.94825007		
+	0.1154	0.95764009		
+	0.1155	0.95248295		
+	0.1156	0.96620701		
+	0.1157	0.96096638		
+	0.1158	0.96086362		
+	0.1159	0.96499763		
+	0.116	0.9545609		
+	0.1161	0.96056063		
+	0.1162	0.96122151		
+	0.1163	0.9485824		
+	0.1164	0.94730362		
+	0.1165	0.94520172		
+	0.1166	0.95446442		
+	0.1167	0.9575194		
+	0.1168	0.97364595		
+	0.1169	0.96514939		
+	0.117	0.9851014		
+	0.1171	1.0034057		
+	0.1172	1.0040582		
+	0.1173	1.0138284		
+	0.1174	1.0001355		
+	0.1175	1.0128783		
+	0.1176	1.0006127		
+	0.1177	1.0164459		
+	0.1178	1.0122218		
+	0.1179	0.99457262		
+	0.118	1.0062748		
+	0.1181	1.0019937		
+	0.1182	1.0028522		
+	0.1183	0.99907868		
+	0.1184	0.98190701		
+	0.1185	0.98269884		
+	0.1186	0.97130706		
+	0.1187	0.97105558		
+	0.1188	0.97393351		
+	0.1189	0.96035035		
+	0.119	0.95661878		
+	0.1191	0.9596243		
+	0.1192	0.95647481		
+	0.1193	0.96855807		
+	0.1194	0.96454646		
+	0.1195	0.95773058		
+	0.1196	0.97188228		
+	0.1197	0.96822353		
+	0.1198	0.97866808		
+	0.1199	0.98841043		
+	0.12	0.99564774		
+	0.1201	1.0002274		
+	0.1202	1.0047563		
+	0.1203	1.0175155		
+	0.1204	1.0154286		
+	0.1205	1.0163638		
+	0.1206	0.99609959		
+	0.1207	0.99588576		
+	0.1208	1.0031606		
+	0.1209	0.99155578		
+	0.121	0.98559819		
+	0.1211	0.96537118		
+	0.1212	0.94746663		
+	0.1213	0.93319676		
+	0.1214	0.92551242		
+	0.1215	0.91760129		
+	0.1216	0.91537875		
+	0.1217	0.91214876		
+	0.1218	0.88812713		
+	0.1219	0.89217698		
+	0.122	0.89101245		
+	0.1221	0.86764241		
+	0.1222	0.86825296		
+	0.1223	0.87670142		
+	0.1224	0.8655865		
+	0.1225	0.86496635		
+	0.1226	0.85680222		
+	0.1227	0.87023771		
+	0.1228	0.8785361		
+	0.1229	0.88538331		
+	0.123	0.90019366		
+	0.1231	0.90459968		
+	0.1232	0.89293169		
+	0.1233	0.89427402		
+	0.1234	0.89586277		
+	0.1235	0.89467111		
+	0.1236	0.90015336		
+	0.1237	0.89582765		
+	0.1238	0.88705508		
+	0.1239	0.89226638		
+	0.124	0.88706145		
+	0.1241	0.87751602		
+	0.1242	0.87055363		
+	0.1243	0.863671		
+	0.1244	0.85560065		
+	0.1245	0.85389751		
+	0.1246	0.85576792		
+	0.1247	0.84783063		
+	0.1248	0.8496618		
+	0.1249	0.84634642		
+	0.125	0.83792999		
+	0.1251	0.84062051		
+	0.1252	0.84333725		
+	0.1253	0.84559549		
+	0.1254	0.85288841		
+	0.1255	0.84729374		
+	0.1256	0.86179295		
+	0.1257	0.87042116		
+	0.1258	0.8780241		
+	0.1259	0.88331117		
+	0.126	0.89442418		
+	0.1261	0.89908169		
+	0.1262	0.88578802		
+	0.1263	0.89585585		
+	0.1264	0.89081411		
+	0.1265	0.89244751		
+	0.1266	0.88539491		
+	0.1267	0.89221461		
+	0.1268	0.87589658		
+	0.1269	0.87137483		
+	0.127	0.880487		
+	0.1271	0.8805949		
+	0.1272	0.86909579		
+	0.1273	0.86990846		
+	0.1274	0.86010299		
+	0.1275	0.86078241		
+	0.1276	0.85676397		
+	0.1277	0.85901065		
+	0.1278	0.85243071		
+	0.1279	0.8451604		
+	0.128	0.84458187		
+	0.1281	0.8464142		
+	0.1282	0.84863307		
+	0.1283	0.83494537		
+	0.1284	0.85415156		
+	0.1285	0.85876357		
+	0.1286	0.87029622		
+	0.1287	0.87697967		
+	0.1288	0.88468121		
+	0.1289	0.88715643		
+	0.129	0.89690602		
+	0.1291	0.89204119		
+	0.1292	0.88906636		
+	0.1293	0.89670531		
+	0.1294	0.89973744		
+	0.1295	0.88022556		
+	0.1296	0.88669152		
+	0.1297	0.87957077		
+	0.1298	0.88427289		
+	0.1299	0.88449605		
+	0.13	0.8717567		
+	0.1301	0.87311934		
+	0.1302	0.87382481		
+	0.1303	0.876095		
+	0.1304	0.86905336		
+	0.1305	0.85668198		
+	0.1306	0.85783984		
+	0.1307	0.87670514		
+	0.1308	0.87038803		
+	0.1309	0.87699232		
+	0.131	0.88527388		
+	0.1311	0.87586139		
+	0.1312	0.89474708		
+	0.1313	0.89532468		
+	0.1314	0.91546659		
+	0.1315	0.9300665		
+	0.1316	0.94042402		
+	0.1317	0.9465874		
+	0.1318	0.96812125		
+	0.1319	0.97636766		